
**** 01/11/25 15:56:04 ****** PSpice 17.2.0 (March 2016) ****** ID# 0 ********

 ** Profile: "SCHEMATIC1-VOSsimulation"  [ E:\Project_Rajabi\TESTER\OPAMP_TESTER\orcad\OPAMP_TESTER-PSpiceFiles\SCHEMATIC1\VOSsimulat


 ****     CIRCUIT DESCRIPTION


******************************************************************************




** Creating circuit file "VOSsimulation.cir" 
** WARNING: THIS AUTOMATICALLY GENERATED FILE MAY BE OVERWRITTEN BY SUBSEQUENT SIMULATIONS

*Libraries: 
* Profile Libraries :
* Local Libraries :
* From [PSPICE NETLIST] section of C:\Users\S.Rajabi\AppData\Roaming\SPB_Data\cdssetup\OrCAD_PSpice\17.2.0\PSpice.ini file:
.lib "nom.lib" 

*Analysis directives: 
.TRAN  0 20s 0 
.OPTIONS ADVCONV
.PROBE64 V(alias(*)) I(alias(*)) W(alias(*)) D(alias(*)) NOISE(alias(*)) 
.INC "..\SCHEMATIC1.net" 



**** INCLUDING SCHEMATIC1.net ****
* source OPAMP_TESTER
V_V1         15+ 0 15Vdc
V_V2         15- 0 -15Vdc
V_V4         V+ 0 5
V_V5         V- 0 -5
R_R18         N39072 N38768  99.9K TC=0,0 
C_C7         N38442 V-  1u  TC=0,0 
R_R12         0 N38668  100 TC=0,0 
C_C10         N38758 N38768  5u  TC=0,0 
C_C11         N39006 N38768  50pF  TC=0,0 
R_R14         N38698 N38758  220K TC=0,0 
C_C8         0 N38652  1n  TC=0,0 
R_R13         N38668 N38668  1Meg TC=0,0 
X_U7         0 N38758 15+ 15- N38768 N39006 AD797S/AD
C_C12         N38442 V+  1u  TC=0,0 
R_R15         0 N39072  100 TC=0,0 
R_R17         N38698 N38758  220K TC=0,0 
R_R11         N38668 V-  9.9K TC=0,0 
C_C9         0 0  33n  TC=0,0 
X_U6A         N39072 N38668 V+ V- N38698 LM324
V_V6         N38442 0  
+SIN 0 2m 500 0 0 0
R_R10         N38652 0  10k TC=0,0 
R_R16         N39072 N39072  1Meg TC=0,0 
R_R21         0 N41097  220 TC=0,0 
R_R19         0 N40935  220 TC=0,0 
C_C14         N41053 N40857  50pF  TC=0,0 
X_U8A         N41097 N40935 15+ 15- N41025 LM324
C_C13         N40841 N41580  1u  TC=0,0 
R_R22         N41025 N40841  8.6K TC=0,0 
X_U9         0 N40841 15+ 15- N40857 N41053 AD797S/AD
R_R23         N41097 N40857  24K TC=0,0 
R_R20         N41025 N40841  8.6K TC=0,0 
R_R24         N41580 N40857  4.3K TC=0,0 
R_R26         0 N43470  100 TC=0,0 
R_R30         N43632 N43382  100K TC=0,0 
X_U10A         N43632 N43470 15+ 15- N43560 LM324
C_C15         N43368 N43378  1u  TC=0,0 
R_R28         0 N43632  100 TC=0,0 
R_R29         N43560 N43368  220K TC=0,0 
R_R25         N43378 N43382  110K TC=0,0 
R_R27         N43560 N43368  220K TC=0,0 
X_U10B         0 N43368 15+ 15- N43382 LM324
X_U10C         N44552 N44502 N44572 0 N44502 LM324
V_V7         N44552 0 2.5Vdc
V_V8         N45861 0 2.5Vdc
V_V9         N44572 0 5Vdc
R_R31         N45861 N44502  1K TC=0,0 
X_U10D         N46916 N46735 15+ 15- N46959 LM324
R_R32         N46735 N46959  100K TC=0,0 
R_R33         N44502 N46735  100 TC=0,0 
R_R34         N45861 N46916  100 TC=0,0 
C_C16         N46735 N46959  1n  TC=0,0 
R_R35         0 N46916  100K TC=0,0 
X_U11C         N49646 N49650 15+ 15- N48813 LM324
R_R36         0 N49650  115 TC=0,0 
R_R37         0 N49646  115 TC=0,0 
R_R38         N49650 N48813  115 TC=0,0 
C_C17         N49650 N48813  10p  TC=0,0 
R_R39         0 N49646  115 TC=0,0 
R_R40         N52663 N52671  120K TC=0,0 
R_R41         0 N52663  115 TC=0,0 
R_R43         0 N52837  120K TC=0,0 
X_U12C         N52837 N52663 15+ 15- N52671 LM324
C_C18         N52663 N52671  10p  TC=0,0 
R_R42         0 N52837  115 TC=0,0 

**** RESUMING VOSsimulation.cir ****
.END

**** 01/11/25 15:56:04 ****** PSpice 17.2.0 (March 2016) ****** ID# 0 ********

 ** Profile: "SCHEMATIC1-VOSsimulation"  [ E:\Project_Rajabi\TESTER\OPAMP_TESTER\orcad\OPAMP_TESTER-PSpiceFiles\SCHEMATIC1\VOSsimulat


 ****     Diode MODEL PARAMETERS


******************************************************************************




               X_U7.DX         X_U7.DEN        X_U7.DIN        X_U6A.dx        
          IS    1.000000E-15    1.000000E-12    1.000000E-12  800.000000E-18 
          RS                    6.370800E+03  474               1            
          KF                    1.590000E-15    7.816000E-15                 


               X_U6A.dy        X_U8A.dx        X_U8A.dy        X_U9.DX         
          IS  800.000000E-18  800.000000E-18  800.000000E-18    1.000000E-15 
          RS    1.000000E-03    1               1.000000E-03                 
         CJO   10.000000E-12                   10.000000E-12                 


               X_U9.DEN        X_U9.DIN        X_U10A.dx       X_U10A.dy       
          IS    1.000000E-12    1.000000E-12  800.000000E-18  800.000000E-18 
          RS    6.370800E+03  474               1               1.000000E-03 
         CJO                                                   10.000000E-12 
          KF    1.590000E-15    7.816000E-15                                 


               X_U10B.dx       X_U10B.dy       X_U10C.dx       X_U10C.dy       
          IS  800.000000E-18  800.000000E-18  800.000000E-18  800.000000E-18 
          RS    1               1.000000E-03    1               1.000000E-03 
         CJO                   10.000000E-12                   10.000000E-12 


               X_U10D.dx       X_U10D.dy       X_U11C.dx       X_U11C.dy       
          IS  800.000000E-18  800.000000E-18  800.000000E-18  800.000000E-18 
          RS    1               1.000000E-03    1               1.000000E-03 
         CJO                   10.000000E-12                   10.000000E-12 


               X_U12C.dx       X_U12C.dy       
          IS  800.000000E-18  800.000000E-18 
          RS    1               1.000000E-03 
         CJO                   10.000000E-12 


**** 01/11/25 15:56:04 ****** PSpice 17.2.0 (March 2016) ****** ID# 0 ********

 ** Profile: "SCHEMATIC1-VOSsimulation"  [ E:\Project_Rajabi\TESTER\OPAMP_TESTER\orcad\OPAMP_TESTER-PSpiceFiles\SCHEMATIC1\VOSsimulat


 ****     BJT MODEL PARAMETERS


******************************************************************************




               X_U7.QX         X_U6A.qx        X_U8A.qx        X_U9.QX         
               NPN             PNP             PNP             NPN             
       LEVEL    1               1               1               1            
          IS  100.000000E-18  800.000000E-18  800.000000E-18  100.000000E-18 
          BF   33.333000E+03  166.7           166.7            33.333000E+03 
          NF    1               1               1               1            
          BR    1               1               1               1            
          NR    1               1               1               1            
         ISS    0               0               0               0            
          RE    0               0               0               0            
          RC    0               0               0               0            
         CJE    0               0               0               0            
         VJE     .75             .75             .75             .75         
         CJC    0               0               0               0            
         VJC     .75             .75             .75             .75         
         MJC     .33             .33             .33             .33         
        XCJC    1               1               1               1            
         CJS    0               0               0               0            
         VJS     .75             .75             .75             .75         
          KF    0               0               0               0            
          AF    1               1               1               1            
          CN    2.42            2.2             2.2             2.42         
           D     .87             .52             .52             .87         


               X_U10A.qx       X_U10B.qx       X_U10C.qx       X_U10D.qx       
               PNP             PNP             PNP             PNP             
       LEVEL    1               1               1               1            
          IS  800.000000E-18  800.000000E-18  800.000000E-18  800.000000E-18 
          BF  166.7           166.7           166.7           166.7          
          NF    1               1               1               1            
          BR    1               1               1               1            
          NR    1               1               1               1            
         ISS    0               0               0               0            
          RE    0               0               0               0            
          RC    0               0               0               0            
         CJE    0               0               0               0            
         VJE     .75             .75             .75             .75         
         CJC    0               0               0               0            
         VJC     .75             .75             .75             .75         
         MJC     .33             .33             .33             .33         
        XCJC    1               1               1               1            
         CJS    0               0               0               0            
         VJS     .75             .75             .75             .75         
          KF    0               0               0               0            
          AF    1               1               1               1            
          CN    2.2             2.2             2.2             2.2          
           D     .52             .52             .52             .52         


               X_U11C.qx       X_U12C.qx       
               PNP             PNP             
       LEVEL    1               1            
          IS  800.000000E-18  800.000000E-18 
          BF  166.7           166.7          
          NF    1               1            
          BR    1               1            
          NR    1               1            
         ISS    0               0            
          RE    0               0            
          RC    0               0            
         CJE    0               0            
         VJE     .75             .75         
         CJC    0               0            
         VJC     .75             .75         
         MJC     .33             .33         
        XCJC    1               1            
         CJS    0               0            
         VJS     .75             .75         
          KF    0               0            
          AF    1               1            
          CN    2.2             2.2          
           D     .52             .52         


**** 01/11/25 15:56:04 ****** PSpice 17.2.0 (March 2016) ****** ID# 0 ********

 ** Profile: "SCHEMATIC1-VOSsimulation"  [ E:\Project_Rajabi\TESTER\OPAMP_TESTER\orcad\OPAMP_TESTER-PSpiceFiles\SCHEMATIC1\VOSsimulat


 ****     Current Controlled Switch MODEL PARAMETERS


******************************************************************************




               X_U6A.sw2       X_U6A.sw1       X_U6A.sw3       X_U6A.sw4       
         RON    1               1               1               1            
        ROFF   10.000000E+06   10.000000E+06   10.000000E+06   10.000000E+06 
         ION    0              -1.000000E-06   -1.000000E-06    0            
        IOFF   -1.000000E-06    0               0              -1.000000E-06 


               X_U8A.sw2       X_U8A.sw1       X_U8A.sw3       X_U8A.sw4       
         RON    1               1               1               1            
        ROFF   10.000000E+06   10.000000E+06   10.000000E+06   10.000000E+06 
         ION    0              -1.000000E-06   -1.000000E-06    0            
        IOFF   -1.000000E-06    0               0              -1.000000E-06 


               X_U10A.sw2      X_U10A.sw1      X_U10A.sw3      X_U10A.sw4      
         RON    1               1               1               1            
        ROFF   10.000000E+06   10.000000E+06   10.000000E+06   10.000000E+06 
         ION    0              -1.000000E-06   -1.000000E-06    0            
        IOFF   -1.000000E-06    0               0              -1.000000E-06 


               X_U10B.sw2      X_U10B.sw1      X_U10B.sw3      X_U10B.sw4      
         RON    1               1               1               1            
        ROFF   10.000000E+06   10.000000E+06   10.000000E+06   10.000000E+06 
         ION    0              -1.000000E-06   -1.000000E-06    0            
        IOFF   -1.000000E-06    0               0              -1.000000E-06 


               X_U10C.sw2      X_U10C.sw1      X_U10C.sw3      X_U10C.sw4      
         RON    1               1               1               1            
        ROFF   10.000000E+06   10.000000E+06   10.000000E+06   10.000000E+06 
         ION    0              -1.000000E-06   -1.000000E-06    0            
        IOFF   -1.000000E-06    0               0              -1.000000E-06 


               X_U10D.sw2      X_U10D.sw1      X_U10D.sw3      X_U10D.sw4      
         RON    1               1               1               1            
        ROFF   10.000000E+06   10.000000E+06   10.000000E+06   10.000000E+06 
         ION    0              -1.000000E-06   -1.000000E-06    0            
        IOFF   -1.000000E-06    0               0              -1.000000E-06 


               X_U11C.sw2      X_U11C.sw1      X_U11C.sw3      X_U11C.sw4      
         RON    1               1               1               1            
        ROFF   10.000000E+06   10.000000E+06   10.000000E+06   10.000000E+06 
         ION    0              -1.000000E-06   -1.000000E-06    0            
        IOFF   -1.000000E-06    0               0              -1.000000E-06 


               X_U12C.sw2      X_U12C.sw1      X_U12C.sw3      X_U12C.sw4      
         RON    1               1               1               1            
        ROFF   10.000000E+06   10.000000E+06   10.000000E+06   10.000000E+06 
         ION    0              -1.000000E-06   -1.000000E-06    0            
        IOFF   -1.000000E-06    0               0              -1.000000E-06 


**** 01/11/25 15:56:04 ****** PSpice 17.2.0 (March 2016) ****** ID# 0 ********

 ** Profile: "SCHEMATIC1-VOSsimulation"  [ E:\Project_Rajabi\TESTER\OPAMP_TESTER\orcad\OPAMP_TESTER-PSpiceFiles\SCHEMATIC1\VOSsimulat


 ****     INITIAL TRANSIENT SOLUTION       TEMPERATURE =   27.000 DEG C


******************************************************************************



 NODE   VOLTAGE     NODE   VOLTAGE     NODE   VOLTAGE     NODE   VOLTAGE


(   V+)    5.0000  (   V-)   -5.0000  (  15+)   15.0000  (  15-)  -15.0000      

(N38442)    0.0000 (N38652)    0.0000 (N38668)    -.0500 (N38698)    4.3162     

(N38758)     .6247 (N38768)  -11.3830 (N39006)  -11.1350 (N39072)    -.0114     

(N40841) 79.98E-06 (N40857)     .0212 (N40935) 9.889E-06 (N41025)     .0057     

(N41053)     .0212 (N41097) 202.5E-06 (N41580)     .0212 (N43368)-194.4E-06     

(N43378)     .1927 (N43382)     .1927 (N43470) 4.495E-06 (N43560)    -.0051     

(N43632) 197.0E-06 (N44502)    2.4998 (N44552)    2.5000 (N44572)    5.0000     

(N45861)    2.5000 (N46735)    2.4965 (N46916)    2.4975 (N46959)    -.7922     

(N48813)-385.0E-06 (N49646) 2.572E-06 (N49650)-189.9E-06 (N52663)-185.4E-06     

(N52671)    -.1990 (N52837) 5.139E-06 (X_U7.3)-281.0E-18 (X_U7.4)    -.2686     

(X_U7.5)   14.9480 (X_U7.6)   15.0000 (X_U7.9) 80.62E-06 (X_U9.3)-281.0E-18     

(X_U9.4)    -.8753 (X_U9.5)   14.9740 (X_U9.6)   14.9740 (X_U9.9) 80.00E-06     

(X_U6A.6)    -.6865                   (X_U6A.7)    6.3455                       

(X_U6A.8)    6.3455                   (X_U6A.9)    0.0000                       

(X_U6A.a)    4.9594                   (X_U6A.b)    -.0406                       

(X_U7.10)   -2.0720                   (X_U7.11)    1.2090                       

(X_U7.12)   -1.2090                   (X_U7.13)    -.0207                       

(X_U7.15)  -11.0990                   (X_U7.16)  -11.3850                       

(X_U7.17)  -11.0990                   (X_U7.18)  -11.3850                       

(X_U7.19)   10.6790                   (X_U7.20)  -10.6790                       

(X_U7.21)     .6232                   (X_U7.22) 623.2E-09                       

(X_U7.23)  -11.3850                   (X_U7.24)  -11.3850                       

(X_U7.25)-11.39E+06                   (X_U7.26)  -11.3850                       

(X_U7.27)  -11.3850                   (X_U7.28)  -11.3850                       

(X_U7.29)  -11.3850                   (X_U7.30)  -11.3850                       

(X_U7.31) 888.2E-18                   (X_U7.32)     .6405                       

(X_U7.33) 888.2E-18                   (X_U7.34) 888.2E-18                       

(X_U7.35)  -10.4380                   (X_U7.36)  -12.1280                       

(X_U7.37)  -11.3830                   (X_U7.40)    2.0000                       

(X_U7.41)-2.810E-15                   (X_U7.42)   -2.0000                       

(X_U7.43)    2.0000                   (X_U7.44) 555.1E-18                       

(X_U7.45)   -2.0000                   (X_U7.46)    2.0000                       

(X_U7.47)    0.0000                   (X_U7.48)   -2.0000                       

(X_U7.51)  -15.0000                   (X_U7.97)   15.0000                       

(X_U7.98) 888.2E-18                   (X_U8A.6)-1.088E-06                       

(X_U8A.7)     .0057                   (X_U8A.8)     .0057                       

(X_U8A.9)    0.0000                   (X_U8A.a)   15.0000                       

(X_U8A.b)-2.800E-06                   (X_U9.10) 2.124E-06                       

(X_U9.11)    1.2090                   (X_U9.12)   -1.2090                       

(X_U9.13) 21.24E-09                   (X_U9.15)     .0212                       

(X_U9.16)     .0212                   (X_U9.17)     .0212                       

(X_U9.18)     .0212                   (X_U9.19)   10.6790                       

(X_U9.20)  -10.6790                   (X_U9.21) 79.79E-06                       

(X_U9.22) 79.79E-12                   (X_U9.23)     .0212                       

(X_U9.24)     .0212                   (X_U9.25) 21.24E+03                       

(X_U9.26)     .0212                   (X_U9.27)     .0212                       

(X_U9.28)     .0212                   (X_U9.29)     .0212                       

(X_U9.30)     .0212                   (X_U9.31) 888.2E-18                       

(X_U9.32)    -.5146                   (X_U9.33) 888.2E-18                       

(X_U9.34) 888.2E-18                   (X_U9.35)     .9662                       

(X_U9.36)    -.7238                   (X_U9.37)     .0212                       

(X_U9.40)    2.0000                   (X_U9.41)-2.810E-15                       

(X_U9.42)   -2.0000                   (X_U9.43)    2.0000                       

(X_U9.44) 555.1E-18                   (X_U9.45)   -2.0000                       

(X_U9.46)    2.0000                   (X_U9.47) 555.1E-18                       

(X_U9.48)   -2.0000                   (X_U9.51)  -15.0000                       

(X_U9.97)   15.0000                   (X_U9.98) 888.2E-18                       

(X_U10A.6) 969.0E-09                  (X_U10A.7)    -.0051                      

(X_U10A.8)    -.0051                  (X_U10A.9)    0.0000                      

(X_U10A.a)   15.0000                  (X_U10A.b)-1.764E-06                      

(X_U10B.6)-36.36E-06                  (X_U10B.7)     .1928                      

(X_U10B.8)     .1928                  (X_U10B.9)    0.0000                      

(X_U10B.a)   15.0000                  (X_U10B.b)-3.425E-06                      

(X_U10C.6)-431.2E-09                  (X_U10C.7)    2.5014                      

(X_U10C.8)    2.5014                  (X_U10C.9)    0.0000                      

(X_U10C.a)    5.0000                  (X_U10C.b)-32.61E-06                      

(X_U10D.6) 149.8E-06                  (X_U10D.7)    -.7939                      

(X_U10D.8)    -.7939                  (X_U10D.9)    0.0000                      

(X_U10D.a) 34.39E-06                  (X_U10D.b)  -15.0000                      

(X_U11C.6) 96.61E-09                  (X_U11C.7)-469.8E-06                      

(X_U11C.8)-469.8E-06                  (X_U11C.9)    0.0000                      

(X_U11C.a) 3.196E-06                  (X_U11C.b)  -15.0000                      

(X_U12C.6) 37.54E-06                  (X_U12C.7)    -.1991                      

(X_U12C.8)    -.1991                  (X_U12C.9)    0.0000                      

(X_U12C.a) 3.157E-06                  (X_U12C.b)  -15.0000                      

(X_U6A.10)     .5739                  (X_U6A.11)   -4.9420                      

(X_U6A.12)   -4.9786                  (X_U6A.13)     .5536                      

(X_U6A.14)     .5664                  (X_U6A.53)    3.5000                      

(X_U6A.54)   -4.1780                  (X_U6A.90)   40.5850                      

(X_U6A.91)   40.0000                  (X_U6A.92)  -40.0000                      

(X_U6A.99)    0.0000                  (X_U8A.10)     .6078                      

(X_U8A.11)  -14.9600                  (X_U8A.12)  -14.9600                      

(X_U8A.13)     .5939                  (X_U8A.14)     .5939                      

(X_U8A.53)   13.5000                  (X_U8A.54)  -14.1780                      

(X_U8A.90)     .0013                  (X_U8A.91)   40.0000                      

(X_U8A.92)  -40.0000                  (X_U8A.99)    0.0000                      

(X_U10A.10)     .6078                 (X_U10A.11)  -14.9600                     

(X_U10A.12)  -14.9600                 (X_U10A.13)     .5939                     

(X_U10A.14)     .5939                 (X_U10A.53)   13.5000                     

(X_U10A.54)  -14.1780                 (X_U10A.90)-44.95E-06                     

(X_U10A.91)   40.0000                 (X_U10A.92)  -40.0000                     

(X_U10A.99)    0.0000                 (X_U10B.10)     .6076                     

(X_U10B.11)  -14.9600                 (X_U10B.12)  -14.9600                     

(X_U10B.13)     .5937                 (X_U10B.14)     .5937                     

(X_U10B.53)   13.5000                 (X_U10B.54)  -14.1780                     

(X_U10B.90)     .0019                 (X_U10B.91)   40.0000                     

(X_U10B.92)  -40.0000                 (X_U10B.99)    0.0000                     

(X_U10C.10)    3.1076                 (X_U10C.11)     .0398                     

(X_U10C.12)     .0396                 (X_U10C.13)    3.0937                     

(X_U10C.14)    3.0937                 (X_U10C.53)    3.5000                     

(X_U10C.54)     .8220                 (X_U10C.90)     .0326                     

(X_U10C.91)   40.0000                 (X_U10C.92)  -40.0000                     

(X_U10C.99)    2.5000                 (X_U10D.10)    3.1042                     

(X_U10D.11)  -14.9600                 (X_U10D.12)  -14.9610                     

(X_U10D.13)    3.0903                 (X_U10D.14)    3.0907                     

(X_U10D.53)   13.5000                 (X_U10D.54)  -14.1780                     

(X_U10D.90)    -.0329                 (X_U10D.91)   40.0000                     

(X_U10D.92)  -40.0000                 (X_U10D.99)    0.0000                     

(X_U11C.10)     .6076                 (X_U11C.11)  -14.9600                     

(X_U11C.12)  -14.9600                 (X_U11C.13)     .5937                     

(X_U11C.14)     .5937                 (X_U11C.53)   13.5000                     

(X_U11C.54)  -14.1780                 (X_U11C.90)    -.0017                     

(X_U11C.91)   40.0000                 (X_U11C.92)  -40.0000                     

(X_U11C.99)    0.0000                 (X_U12C.10)     .6076                     

(X_U12C.11)  -14.9600                 (X_U12C.12)  -14.9600                     

(X_U12C.13)     .5937                 (X_U12C.14)     .5937                     

(X_U12C.53)   13.5000                 (X_U12C.54)  -14.1780                     

(X_U12C.90)    -.0017                 (X_U12C.91)   40.0000                     

(X_U12C.92)  -40.0000                 (X_U12C.99)    0.0000                 




    VOLTAGE SOURCE CURRENTS
    NAME         CURRENT

    V_V1        -4.165E-02
    V_V2        -2.696E-01
    V_V4        -1.150E-03
    V_V5         1.617E-03
    V_V6         0.000E+00
    V_V7         4.474E-08
    V_V8        -2.512E-05
    V_V9        -5.987E-04
    X_U7.VN1    -2.357E-04
    X_U7.VN2    -2.357E-04
    X_U7.VN3    -3.028E-03
    X_U7.VN4    -3.028E-03
    X_U7.VN5    -3.028E-03
    X_U7.VN6    -3.028E-03
    X_U7.V1      2.207E-11
    X_U7.V2     -7.157E-04
    X_U7.VW     -2.046E-13
    X_U7.VO1     5.691E-05
    X_U7.VO2    -6.415E-13
    X_U7.VSC1   -9.483E-13
    X_U7.VSC2   -7.437E-13
    X_U6A.vb    -6.865E-06
    X_U6A.vc    -4.055E-02
    X_U6A.ve     9.067E-12
    X_U6A.vlim   4.058E-02
    X_U6A.vlp    5.241E-06
    X_U6A.vln   -8.059E-11
    X_U8A.vb    -1.088E-11
    X_U8A.vc     1.350E-11
    X_U8A.ve     1.613E-11
    X_U8A.vlim   1.300E-06
    X_U8A.vlp   -4.000E-11
    X_U8A.vln   -4.000E-11
    X_U9.VN1    -2.357E-04
    X_U9.VN2    -2.357E-04
    X_U9.VN3    -3.028E-03
    X_U9.VN4    -3.028E-03
    X_U9.VN5    -3.028E-03
    X_U9.VN6    -3.028E-03
    X_U9.V1      1.066E-11
    X_U9.V2      1.070E-11
    X_U9.VW     -2.000E-13
    X_U9.VO1    -5.156E-13
    X_U9.VO2     4.379E-07
    X_U9.VSC1   -9.460E-13
    X_U9.VSC2   -7.460E-13
    X_U10A.vb    9.690E-12
    X_U10A.vc    1.351E-11
    X_U10A.ve    1.611E-11
    X_U10A.vlim  -4.495E-08
    X_U10A.vlp  -4.000E-11
    X_U10A.vln  -4.000E-11
    X_U10B.vb   -3.636E-10
    X_U10B.vc    1.331E-11
    X_U10B.ve    1.631E-11
    X_U10B.vlim   1.925E-06
    X_U10B.vlp  -4.000E-11
    X_U10B.vln  -4.001E-11
    X_U10C.vb   -4.312E-12
    X_U10C.vc    1.001E-12
    X_U10C.ve    1.566E-12
    X_U10C.vlim   3.261E-05
    X_U10C.vlp  -3.997E-11
    X_U10C.vln  -4.004E-11
    X_U10D.vb    1.498E-09
    X_U10D.vc    1.429E-11
    X_U10D.ve    1.533E-11
    X_U10D.vlim  -3.289E-05
    X_U10D.vlp  -4.003E-11
    X_U10D.vln  -3.997E-11
    X_U11C.vb    9.661E-13
    X_U11C.vc    1.350E-11
    X_U11C.ve    1.612E-11
    X_U11C.vlim  -1.696E-06
    X_U11C.vlp  -4.000E-11
    X_U11C.vln  -4.000E-11
    X_U12C.vb    3.754E-10
    X_U12C.vc    1.370E-11
    X_U12C.ve    1.592E-11
    X_U12C.vlim  -1.657E-06
    X_U12C.vlp  -4.000E-11
    X_U12C.vln  -4.000E-11

    TOTAL POWER DISSIPATION  -3.29E+00  WATTS


          JOB ABORTED

**** 01/11/25 15:56:04 ****** PSpice 17.2.0 (March 2016) ****** ID# 0 ********

 ** Profile: "SCHEMATIC1-VOSsimulation"  [ E:\Project_Rajabi\TESTER\OPAMP_TESTER\orcad\OPAMP_TESTER-PSpiceFiles\SCHEMATIC1\VOSsimulat


 ****     JOB STATISTICS SUMMARY


******************************************************************************



  Total job time (using Solver 1)   =       10.11
